13
Atoms. T = 3.5753947465595202e-06
Ar 0.5580438330493079 -0.1769707780177608 -0.36610485567523643
Ar -0.033266024038381845 -0.8960631313992342 0.27706018927254206
Ar -0.04091931954369611 0.16740886167136865 0.5511481563002472
Ar 0.0008598830916934364 1.2530887720325008 0.6065087476238722
Ar 0.011472418909554818 0.795517188241923 -0.4110624591722277
Ar 1.0585472509062588 0.7322491789429473 -0.8098934207806667
Ar -0.9245748237118279 -1.184040576102943 -0.2914794717500415
Ar -1.0113994694280768 -0.4113083069632046 0.5336808741035438
Ar 0.8927498437523168 -0.4279723130732193 0.6602126597021131
Ar -0.9195357335532437 0.6926571105712034 0.21258934250282568
Ar 0.9097947110636804 0.6463185371018276 0.293346919064243
Ar 0.03251519420276951 -1.0252825081509953 -0.8388712616064249
Ar -0.5342877647003549 -0.1656020348544135 -0.41713541958479017
