25
Atoms. T = 3.6848381236706627e-06
Ar 0.05001496615717693 -0.19965189423690735 -0.3890353745994841
Ar 0.9159705807090615 -0.31655512404793473 0.22290497149891908
Ar -0.03207765640523569 0.6199465972877216 -1.1048750608874582
Ar -0.3842241112617223 -1.1435229474238289 -0.6443520733080984
Ar -1.1246347659176228 0.883658949860695 -1.134027876044488
Ar 1.526812366012428 0.5730409287624199 -0.11132506890969847
Ar 0.14388645352120144 -0.47415890778851033 -1.4428151664895887
Ar 0.9834323922379673 1.1480472243466653 -0.96968830403383
Ar -1.6563830468726248 0.14684539463272966 -0.40162056644059346
Ar -0.8809121842284038 -0.4278299698979401 0.13938255714341757
Ar -0.9101056369673983 -1.4967280420576674 0.32396555985667064
Ar 1.8010725399390206 -0.48265499807523626 -0.4415953972769881
Ar 0.07206376089180677 -0.9841059911470846 0.3951263615543787
Ar 0.5473888489292342 0.9179295108235246 1.8185171923294319
Ar -0.617181548439615 -0.6758343700794165 1.1841467754271682
Ar 0.005760445436847894 1.1550747085694306 0.8501140491301362
Ar 0.9544402136204555 0.06308371764321752 -0.91719582328228
Ar -0.8195508073617528 -0.1786229676700303 -0.9961097824549069
Ar 0.45770674347635837 0.7621391620624924 -0.08200375077581426
Ar 0.5170626384715289 -0.44029994976676595 1.3062523032197695
Ar 0.9539045377042914 0.5247231978620979 0.8878220233719236
Ar -1.4693225991974295 -0.9988015377842447 -0.57092213062097
Ar -0.057866669427238615 0.11194137421614106 0.6120070540188152
Ar -0.6503379043115296 0.6180743219645661 -0.16418845437643856
Ar -0.3269195567168066 0.29426161194386574 1.629515981950004
