6
Atoms. T = 1.077220789671712e-12
Ar -0.5416072205713481 0.6151831444866956 -1.6543883299145883
Ar 0.1278412582773269 1.4142333294854992 -2.010859171697043
Ar -0.6816075163854949 1.0385478979641907 -2.687268354738492
Ar -0.9205508445257541 -0.02562224852046754 -2.4862931365506147
Ar -1.591281019515523 0.7695107279626755 -2.071482052036276
Ar -0.9508840182306098 1.6415264762515451 -1.7907405942601489
